[General]
#debug-on-errors = true
#sim-time-limit = 600s
sim-time-limit = 60s
seed-0-mt = 5
#record-eventlog = true

cmdenv-express-mode = true

description = "Manet routing Simple test"

result-dir = "results"

*.numFixHosts = 2
*.numRouters = 20

# Mobility
#**.mobility.typename = "StationaryMobility"
**.fixhost[*].mobility.typename = "StationaryMobility"
**.router[*].mobility.typename = "StationaryMobility"
**.constraintAreaMinX = 0m
**.constraintAreaMinY = 0m
**.constraintAreaMinZ = 0m
**.constraintAreaMaxX = 1000m
**.constraintAreaMaxY = 1000m
**.constraintAreaMaxZ = 0m
**.mobility.initFromDisplayString = false
**.fixhost[0].mobility.initialX = 999m
**.fixhost[0].mobility.initialY = 999m
**.fixhost[1].mobility.initialX = 1m
**.fixhost[1].mobility.initialY = 1m
**.updateFromDisplayString = false

# Application
**.numApps = 2
# Client
**.fixhost[0].app[0].typename = "UdpBasicBurstNotification"
**.fixhost[0].app[0].destAddresses = "fixhost[1]"
**.fixhost[0].app[0].startTime = 10s+uniform(1s,5s)
**.fixhost[0].app[0].localPort = 1234
**.fixhost[0].app[0].destPort = 1234
**.fixhost[0].app[0].messageLength = 512B  #
**.fixhost[0].app[0].sendInterval = 0.5s + uniform(-0.001s,0.001s)
**.fixhost[0].app[0].burstDuration = 0s
**.fixhost[0].app[0].chooseDestAddrMode = "perBurst"
**.fixhost[0].app[0].sleepDuration = 1s # useless

# Server
**.fixhost[1].app[0].typename = "UdpSink"
**.fixhost[1].app[0].localPort = 1234

# Router
**.router[*].app[0].typename = "UdpSink"
**.router[*].app[0].localPort = 0

# MAC
**.arp.typename = "GlobalArp"
**.wlan[*].mac.opMode = "g(mixed)"
**.wlan[*].mac.dcf.channelAccess.pendingQueue.frameCapacity = 10
**.wlan[*].mac.dcf.channelAccess.cwMin = 15
**.wlan[*].mac.dcf.channelAccess.cwMax = 1023
**.wlan[*].mac.dcf.recoveryProcedure.shortRetryLimit = 4
**.wlan[*].mac.dcf.recoveryProcedure.longRetryLimit = 4
**.wlan[*].mac.dcf.rtsPolicy.rtsThreshold = 5000 B
**.wlan*.bitrate = 54Mbps
**.wlan[*].mac.dcf.rateSelection.controlFrameBitrate = 54Mbps
**.wlan[*].mac.dcf.rateSelection.responseAckFrameBitrate = 54Mbps
**.wlan[*].mac.dcf.rateSelection.responseCtsFrameBitrate = 54Mbps
**.wlan[*].mac.dcf.rateSelection.dataFrameBitrate = 54Mbps
**.wlan[*].mac.dcf.rateSelection.mgmtFrameBitrate = 54Mbps

# PHY
#**.SensitivityTable = xmldoc("sensitivityTable")
**.wlan[*].radio.bandName = "2.4 GHz"
**.wlan[*].radio.channelNumber = 0
#**.wlan[*].radio.transmitter.power = 10 dBm
#**.wlan[*].radio.transmitter.power = 17.1 dBm
**.wlan[*].radio.transmitter.power = 20 dBm
**.wlan*.radio.receiver.sensitivity = -90 dBm
**.wlan*.radio.receiver.energyDetection = -90 dBm
**.wlan[*].radio.receiver.snirThreshold = 20 dB

*.*.wlan[*].radio.receiver.errorModel.typename = ""
*.radioMedium.backgroundNoise.power = -110 dBm
#*.radioMedium.rangeFilter = "communicationRange"


#*.**.udp.crcMode = "disabled"
#*.*.wlan[*].mac.dcf.originatorMacDataService.fragmentationPolicy.typename = ""


######################################################################
# manet routing
######################################################################
#[Config OLSR]
#extends = General
#**.app[0].typename = "Olsr"
#
#*.numFixHosts = 2
#*.numRouters = 2
#
#**.fixhost[*].mobility.typename = "StationaryMobility"
#**.router[*].mobility.typename = "StationaryMobility"
#**.constraintAreaMinX = 0m
#**.constraintAreaMinY = 0m
#**.constraintAreaMinZ = 0m
#**.constraintAreaMaxX = 300m
#**.constraintAreaMaxY = 150m
#**.constraintAreaMaxZ = 0m
#**.mobility.initFromDisplayString = false
#
#**.fixhost[0].mobility.initialX = 50m
#**.fixhost[0].mobility.initialY = 60m
#**.fixhost[1].mobility.initialX = 0m
#**.fixhost[1].mobility.initialY = 60m
#
#*.physicalEnvironment.ground.typename = "FlatGround"
#*.physicalEnvironment.ground.elevation = 0m
#*.radioMedium.pathLoss.typename = "FactoryFading"
##*.radioMedium.pathLoss.blockageFile = "/home/bman/Documents/omnetpp-6.0.3/samples/PARRoT-PARRoT/PARRoT/simulations/BlockageFiles/0.csv"
##*.radioMedium.pathLoss.loadObstacle = true
##*.physicalEnvironment.config = xmldoc("/home/bman/Documents/omnetpp-6.0.3/samples/PARRoT-PARRoT/PARRoT/simulations/BlockageFiles/0.xml") # load physical objects
#
#[Config OLSR_MoreData]
#extends = OLSR
#**.app[0].sendInterval = ${sendInterval = 100, 200, 300, 400, 500, 1000} ms
#**.app[0].burstDuration = 0s
#**.app[0].chooseDestAddrMode = "perBurst"
#**.app[0].sleepDuration = 1s # useless
#
#[Config OLSR_Mob]
#extends = General
#**.app[0].typename = "Olsr"
#**.fixhost[*].mobility.typename = "RandomWaypointMobility"
#**.router[*].mobility.typename = "RandomWaypointMobility"
#**.mobility.constraintAreaMinX = 0m
#**.mobility.speed = ${speed=5,10,20,30} mps
#**.mobility.waitTime = 2 s
#**.constraintAreaMinX = 0m
#**.constraintAreaMinY = 0m
#**.constraintAreaMinZ = 0m
#**.constraintAreaMaxX = 1000m
#**.constraintAreaMaxY = 1000m
#**.constraintAreaMaxZ = 0m
#**.mobility.initFromDisplayString = false
#**.fixhost[0].mobility.initialX = 999m
#**.fixhost[0].mobility.initialY = 999m
#**.fixhost[1].mobility.initialX = 1m
#**.fixhost[1].mobility.initialY = 1m

#[Config OLSR_Mob_MoreData]
#extends = OLSR_Mob
##**.app[0].sendInterval = 0.05s + uniform(-0.001s,0.001s)
#**.app[0].sendInterval = ${sendInterval = 100, 200, 300, 400, 500, 1000} ms
#**.app[0].burstDuration = 0s
#**.app[0].chooseDestAddrMode = "perBurst"
#**.app[0].sleepDuration = 1s # useless

#network = inet.examples.manetrouting.net80211_aodv.Net80211_aodv

[Config Factory_Env]
extends = General
**.app[1].typename = "Olsr"
.seed = ${seed = 0..9 step 1}
seed-set=${seed}

# Node Number
*.numFixHosts = 2
*.numRouters = 20

## Application
**.app[0].sendInterval = 100 ms
**.app[0].burstDuration = 0s
**.app[0].chooseDestAddrMode = "perBurst"
**.app[0].sleepDuration = 1s # useless

# PHY
*.physicalEnvironment.ground.typename = "FlatGround"
*.physicalEnvironment.ground.elevation = 0m
*.radioMedium.pathLoss.typename = "FactoryFading"

#**.fixhost[0].mobility.initialX = 670m
#**.fixhost[0].mobility.initialY = 0m
#**.fixhost[1].mobility.initialX = 0m
#**.fixhost[1].mobility.initialY = 0m

## Mobility
*.router[*].mobility.typename = "ExtendedBonnMotionMobility"
*.router[*].mobility.is3D = true
*.router[*].mobility.nodeId = -1
*.router[*].mobility.applyDistortion = false
*.router[*].mobility.wpProvided = false
*.router[*].mobility.traceFile = "/home/bman/Documents/omnetpp-6.0.3/samples/PARRoT-PARRoT/PARRoT/Tools/TraceFiles/seed${seed}_num90_router.csv"
*.router[*].mobility.distFile = ""
*.router[*].mobility.wpFile = ""

*.fixhost[*].mobility.typename = "ExtendedBonnMotionMobility"
*.fixhost[*].mobility.is3D = true
*.fixhost[*].mobility.nodeId = -1
*.fixhost[*].mobility.applyDistortion = false
*.fixhost[*].mobility.wpProvided = false
*.fixhost[*].mobility.traceFile = "/home/bman/Documents/omnetpp-6.0.3/samples/PARRoT-PARRoT/PARRoT/Tools/TraceFiles/seed${seed}_num90_host.csv"
*.fixhost[*].mobility.distFile = ""
*.fixhost[*].mobility.wpFile = ""

#*.fixhost[*].mobility.distFile = "/home/bman/Documents/omnetpp-6.0.3/samples/PARRoT-PARRoT/PARRoT/simulations/DistortionFiles/dist_5m_${seed}_host.csv"
#*.fixhost[*].mobility.wpFile = "/home/bman/Documents/omnetpp-6.0.3/samples/PARRoT-PARRoT/PARRoT/simulations//WaypointFiles/${seed}_wp_host.csv"

#*.radioMedium.pathLoss.blockageFile = "/home/bman/Documents/omnetpp-6.0.3/samples/PARRoT-PARRoT/PARRoT/simulations/BlockageFiles/seed${seed}_num90.csv"
#*.physicalEnvironment.config = xmldoc("/home/bman/Documents/omnetpp-6.0.3/samples/PARRoT-PARRoT/PARRoT/simulations/BlockageFiles/seed${seed}_num90.xml") # load physical objects
#*.radioMedium.pathLoss.loadObstacle = true

[Config Factory_Env_OLSR_ETX]
extends = Factory_Env
**.app[1].typename = "Olsr_Etx"
**.app[1].Link_delay = false
**.app[1].ETX_loss_window_size = 1
**.app[1].routing_algorithm = 2
**.app[1].Mpr_algorithm = 1
**.app[1].Link_quality = 2

[Config Factory_Env_OLSR_TVT]
extends = Factory_Env
**.app[1].typename = "Olsr_Etx_TVT"
**.app[1].Link_delay = false
**.app[1].ETX_loss_window_size = 1
**.app[1].routing_algorithm = 2
**.app[1].Mpr_algorithm = 6
#**.app[1].Mpr_algorithm = 1
**.app[1].Link_quality = 2
#**.app[1].Rmax = 1500m
#**.app[1].Rmax = 1500m
**.app[1].Rmax = ${nRmax=400m, 1500m}
*.numRouters = 20

[Config Factory_Env_OLSR_TVT_DiffRmax]
extends = Factory_Env
**.app[1].typename = "Olsr_Etx_TVT"
**.app[1].Link_delay = false
**.app[1].ETX_loss_window_size = 1
**.app[1].routing_algorithm = 2
**.app[1].Mpr_algorithm = 6
**.app[1].Link_quality = 2
**.app[1].load_losmap = false
**.app[1].Rmax = ${Rmax=0m, 100m, 213m, 400m, 670m, 900m, 1500m}
*.numRouters = ${numRouters=15, 20, 30, 40}


[Config Factory_Env_OLSR_ETX_Obstacle]
extends = Factory_Env
**.app[1].typename = "Olsr_Etx"
**.app[1].Link_delay = false
**.app[1].ETX_loss_window_size = 1
**.app[1].routing_algorithm = 2
**.app[1].Mpr_algorithm = 1
**.app[1].Link_quality = 2

[Config Factory_Env_Obstacle]
extends = Factory_Env
#*.radioMedium.pathLoss.blockageFile = "/home/bman/Documents/omnetpp-6.0.3/samples/PARRoT-PARRoT/PARRoT/Tools/BlockageFiles/seed${seed}_num90.csv"
#*.physicalEnvironment.config = xmldoc("/home/bman/Documents/omnetpp-6.0.3/samples/PARRoT-PARRoT/PARRoT/Tools/BlockageFiles/seed${seed}_num90.xml") # load physical objects
#*.radioMedium.pathLoss.loadObstacle = true

*.numFixHosts = 0
*.numRouters = 20

#*.radioMedium.pathLoss.blockageFile = "/home/bman/Documents/omnetpp-6.0.3/samples/PARRoT-PARRoT/PARRoT/Tools/BlockageFiles/seed${seed}_num${blocknum=0,40,80,120,160}.csv"
#*.physicalEnvironment.config = xmldoc("/home/bman/Documents/omnetpp-6.0.3/samples/PARRoT-PARRoT/PARRoT/Tools/BlockageFiles/seed${seed}_num${0,40,80,120,160}.xml") # load physical objects
#*.radioMedium.pathLoss.loadObstacle = true


# Client
**.router[0].app[0].typename = "UdpBasicBurstNotification"
**.router[0].app[0].destAddresses = "router[1]"
**.router[0].app[0].startTime = 10s+uniform(1s,5s)
**.router[0].app[0].localPort = 1234
**.router[0].app[0].destPort = 1234
**.router[0].app[0].messageLength = 512B  #
**.router[0].app[0].sendInterval = 100 ms
**.router[0].app[0].burstDuration = 0s
**.router[0].app[0].chooseDestAddrMode = "perBurst"
**.router[0].app[0].sleepDuration = 1s # useless

# Server
**.router[1].app[0].typename = "UdpSink"
**.router[1].app[0].localPort = 1234

# Client
**.router[2].app[0].typename = "UdpBasicBurstNotification"
**.router[2].app[0].destAddresses = "router[3]"
**.router[2].app[0].startTime = 10s+uniform(1s,5s)
**.router[2].app[0].localPort = 1234
**.router[2].app[0].destPort = 1234
**.router[2].app[0].messageLength = 512B  #
**.router[2].app[0].sendInterval = 100 ms
**.router[2].app[0].burstDuration = 0s
**.router[2].app[0].chooseDestAddrMode = "perBurst"
**.router[2].app[0].sleepDuration = 1s # useless

# Server
**.router[3].app[0].typename = "UdpSink"
**.router[3].app[0].localPort = 1234

# Client
**.router[4].app[0].typename = "UdpBasicBurstNotification"
**.router[4].app[0].destAddresses = "router[5]"
**.router[4].app[0].startTime = 10s+uniform(1s,5s)
**.router[4].app[0].localPort = 1234
**.router[4].app[0].destPort = 1234
**.router[4].app[0].messageLength = 512B  #
**.router[4].app[0].sendInterval = 100 ms
**.router[4].app[0].burstDuration = 0s
**.router[4].app[0].chooseDestAddrMode = "perBurst"
**.router[4].app[0].sleepDuration = 1s # useless

# Server
**.router[5].app[0].typename = "UdpSink"
**.router[5].app[0].localPort = 1234


# Client
**.router[6].app[0].typename = "UdpBasicBurstNotification"
**.router[6].app[0].destAddresses = "router[7]"
**.router[6].app[0].startTime = 10s+uniform(1s,5s)
**.router[6].app[0].localPort = 1234
**.router[6].app[0].destPort = 1234
**.router[6].app[0].messageLength = 512B  #
**.router[6].app[0].sendInterval = 100 ms
**.router[6].app[0].burstDuration = 0s
**.router[6].app[0].chooseDestAddrMode = "perBurst"
**.router[6].app[0].sleepDuration = 1s # useless

# Server
**.router[7].app[0].typename = "UdpSink"
**.router[7].app[0].localPort = 1234

# Client
**.router[8].app[0].typename = "UdpBasicBurstNotification"
**.router[8].app[0].destAddresses = "router[9]"
**.router[8].app[0].startTime = 10s+uniform(1s,5s)
**.router[8].app[0].localPort = 1234
**.router[8].app[0].destPort = 1234
**.router[8].app[0].messageLength = 512B  #
**.router[8].app[0].sendInterval = 100 ms
**.router[8].app[0].burstDuration = 0s
**.router[8].app[0].chooseDestAddrMode = "perBurst"
**.router[8].app[0].sleepDuration = 1s # useless

# Server
**.router[9].app[0].typename = "UdpSink"
**.router[9].app[0].localPort = 1234

# Client
**.router[10].app[0].typename = "UdpBasicBurstNotification"
**.router[10].app[0].destAddresses = "router[11]"
**.router[10].app[0].startTime = 10s+uniform(1s,5s)
**.router[10].app[0].localPort = 1234
**.router[10].app[0].destPort = 1234
**.router[10].app[0].messageLength = 512B  #
**.router[10].app[0].sendInterval = 100 ms
**.router[10].app[0].burstDuration = 0s
**.router[10].app[0].chooseDestAddrMode = "perBurst"
**.router[10].app[0].sleepDuration = 1s # useless

# Server
**.router[11].app[0].typename = "UdpSink"
**.router[11].app[0].localPort = 1234


# Client
**.router[12].app[0].typename = "UdpBasicBurstNotification"
**.router[12].app[0].destAddresses = "router[13]"
**.router[12].app[0].startTime = 10s+uniform(1s,5s)
**.router[12].app[0].localPort = 1234
**.router[12].app[0].destPort = 1234
**.router[12].app[0].messageLength = 512B  #
**.router[12].app[0].sendInterval = 100 ms
**.router[12].app[0].burstDuration = 0s
**.router[12].app[0].chooseDestAddrMode = "perBurst"
**.router[12].app[0].sleepDuration = 1s # useless

# Server
**.router[13].app[0].typename = "UdpSink"
**.router[13].app[0].localPort = 1234


# Client
**.router[14].app[0].typename = "UdpBasicBurstNotification"
**.router[14].app[0].destAddresses = "router[15]"
**.router[14].app[0].startTime = 10s+uniform(1s,5s)
**.router[14].app[0].localPort = 1234
**.router[14].app[0].destPort = 1234
**.router[14].app[0].messageLength = 512B  #
**.router[14].app[0].sendInterval = 100 ms
**.router[14].app[0].burstDuration = 0s
**.router[14].app[0].chooseDestAddrMode = "perBurst"
**.router[14].app[0].sleepDuration = 1s # useless

# Server
**.router[15].app[0].typename = "UdpSink"
**.router[15].app[0].localPort = 1234


# Client
**.router[16].app[0].typename = "UdpBasicBurstNotification"
**.router[16].app[0].destAddresses = "router[17]"
**.router[16].app[0].startTime = 10s+uniform(1s,5s)
**.router[16].app[0].localPort = 1234
**.router[16].app[0].destPort = 1234
**.router[16].app[0].messageLength = 512B  #
**.router[16].app[0].sendInterval = 100 ms
**.router[16].app[0].burstDuration = 0s
**.router[16].app[0].chooseDestAddrMode = "perBurst"
**.router[16].app[0].sleepDuration = 1s # useless

# Server
**.router[17].app[0].typename = "UdpSink"
**.router[17].app[0].localPort = 1234

# Client
**.router[18].app[0].typename = "UdpBasicBurstNotification"
**.router[18].app[0].destAddresses = "router[19]"
**.router[18].app[0].startTime = 10s+uniform(1s,5s)
**.router[18].app[0].localPort = 1234
**.router[18].app[0].destPort = 1234
**.router[18].app[0].messageLength = 512B  #
**.router[18].app[0].sendInterval = 100 ms
**.router[18].app[0].burstDuration = 0s
**.router[18].app[0].chooseDestAddrMode = "perBurst"
**.router[18].app[0].sleepDuration = 1s # useless

# Server
**.router[19].app[0].typename = "UdpSink"
**.router[19].app[0].localPort = 1234


[Config OLSR_TVT]
extends = Factory_Env_Obstacle

network = inet.examples.manetrouting.net80211_aodv.Net80211_aodv

result-dir = "results_olsr_tvt"

**.app[1].typename = "Olsr_Etx_TVT"
**.app[1].Link_delay = false
**.app[1].ETX_loss_window_size = 1
**.app[1].routing_algorithm = 2
**.app[1].Mpr_algorithm = 6
**.app[1].Link_quality = 2

# Parameter Enhanced
**.app[1].Rmax = 526m
**.app[1].Hello_ival = 1s
**.app[1].Tc_ival = 2s
**.app[1].OLSR_REFRESH_INTERVAL = 1s

*.radioMedium.pathLoss.blockageFile = "/home/bman/Documents/omnetpp-6.0.3/samples/PARRoT-PARRoT/PARRoT/Tools/BlockageFiles/seed${seed}_num0.csv"
#*.physicalEnvironment.config = xmldoc("/home/bman/Documents/omnetpp-6.0.3/samples/PARRoT-PARRoT/PARRoT/Tools/BlockageFiles/seed${seed}_num${0,40,80,120,160}.xml") # load physical objects
*.radioMedium.pathLoss.loadObstacle = true

[Config Prels]
extends = Factory_Env_Obstacle
network = inet.examples.manetrouting.net80211_aodv.Net80211_aodv

result-dir = "results_prels"
# Node Number
**.numApps = 1

**.hasIpv4 = false
**.hasIpv6 = false
**.hasGn = true
**.generic.typename = "SimpleNetworkLayer"
*.*.generic.arp.typename = "GlobalArp"
**.generic.np.typename = "Prels"
*.*.wlan[*].mac.dcf.promiscModeEnable = true

**.fixhost[*].mobility.typename = "StationaryMobility"
**.router[*].mobility.typename = "StationaryMobility"
**.mobility.initFromDisplayString = false
**.constraintAreaMinX = 0m
**.constraintAreaMinY = 0m
**.constraintAreaMinZ = 0m
**.constraintAreaMaxX = 1000m
**.constraintAreaMaxY = 1000m
**.constraintAreaMaxZ = 0m
**.fixhost[0].mobility.initialX = 1000m
**.fixhost[0].mobility.initialY = 1000m
**.fixhost[1].mobility.initialX = 0m
**.fixhost[1].mobility.initialY = 0m
**.updateFromDisplayString = false

[Config PARRoT]
extends = Factory_Env_Obstacle
network = inet.examples.manetrouting.net80211_aodv.Net80211_parrot
result-dir = "results_parrot"

**.vector-recording = false

#*.*.llc.typename = "Ieee8022Llc"
*.*.llc.typename = ""

# 必须添加这3行，否则PARRoTRoute转换会失败 因为有低级别的route项存在无法被转换
*.*.ipv4.routingTable.netmaskRoutes = ""
*.configurator.addStaticRoutes = false
*.configurator.addDefaultRoutes = false

**.numApps = 1 # disable MANET Routing

#**.mhChirpInterval = 500ms
**.mhChirpInterval = 1s
**.maxHops = 4
**.neighborReliabilityTimeout = 3s
**.rescheduleRoutesOnTimeout = false
**.useOHRepair = false

**.qFctAlpha = 0.5
**.qFctGamma = 0.8
**.combinationMethod = "M"
#**.predictionMethod = "waypoint"
**.predictionMethod = "optimal"
**.advancedMobility = false

**.maxJitter = 1
**.enableLosMap = false
**.maxRangeForLET = 1990
**.nlosRange = 0
**.losRange = 0

[Config PARRoT_NLOS_Range]
extends = PARRoT
**.enableLosMap = false
**.maxRangeForLET = 526
#**.maxRangeForLET = 1460
#**.maxRangeForLET = 630
**.nlosRange = 0
**.losRange = 0

*.radioMedium.pathLoss.blockageFile = "/home/bman/Documents/omnetpp-6.0.3/samples/PARRoT-PARRoT/PARRoT/Tools/BlockageFiles/seed${seed}_num160.csv"
#*.physicalEnvironment.config = xmldoc("/home/bman/Documents/omnetpp-6.0.3/samples/PARRoT-PARRoT/PARRoT/Tools/BlockageFiles/seed${seed}_num${0,40,80,120,160}.xml") # load physical objects
*.radioMedium.pathLoss.loadObstacle = true

[Config PARRoT_NLOS_Range_B120]
extends = PARRoT_NLOS_Range
*.radioMedium.pathLoss.blockageFile = "/home/bman/Documents/omnetpp-6.0.3/samples/PARRoT-PARRoT/PARRoT/Tools/BlockageFiles/seed${seed}_num120.csv"

[Config PARRoT_NLOS_Range_B80]
extends = PARRoT_NLOS_Range
*.radioMedium.pathLoss.blockageFile = "/home/bman/Documents/omnetpp-6.0.3/samples/PARRoT-PARRoT/PARRoT/Tools/BlockageFiles/seed${seed}_num80.csv"

[Config PARRoT_NLOS_Range_B40]
extends = PARRoT_NLOS_Range
*.radioMedium.pathLoss.blockageFile = "/home/bman/Documents/omnetpp-6.0.3/samples/PARRoT-PARRoT/PARRoT/Tools/BlockageFiles/seed${seed}_num40.csv"

[Config PARRoT_NLOS_Range_B0]
extends = PARRoT_NLOS_Range
*.radioMedium.pathLoss.blockageFile = "/home/bman/Documents/omnetpp-6.0.3/samples/PARRoT-PARRoT/PARRoT/Tools/BlockageFiles/seed${seed}_num0.csv"


[Config PARRoT_LOSMap]
extends = PARRoT
**.maxRangeForLET = 0
**.enableLosMap = true
**.nlosRange = 526
**.losRange = 1990
#**.nlosRange = 826
#**.losRange = 1900
*.radioMedium.pathLoss.blockageFile = "/home/bman/Documents/omnetpp-6.0.3/samples/PARRoT-PARRoT/PARRoT/Tools/BlockageFiles/seed${seed}_num160.csv"
#*.physicalEnvironment.config = xmldoc("/home/bman/Documents/omnetpp-6.0.3/samples/PARRoT-PARRoT/PARRoT/Tools/BlockageFiles/seed${seed}_num${0,40,80,120,160}.xml") # load physical objects
*.radioMedium.pathLoss.loadObstacle = true

[Config PARRoT_LOSMap_B120]
extends = PARRoT_LOSMap
*.radioMedium.pathLoss.blockageFile = "/home/bman/Documents/omnetpp-6.0.3/samples/PARRoT-PARRoT/PARRoT/Tools/BlockageFiles/seed${seed}_num120.csv"

[Config PARRoT_LOSMap_B80]
extends = PARRoT_LOSMap
*.radioMedium.pathLoss.blockageFile = "/home/bman/Documents/omnetpp-6.0.3/samples/PARRoT-PARRoT/PARRoT/Tools/BlockageFiles/seed${seed}_num120.csv"

[Config PARRoT_LOSMap_B40]
extends = PARRoT_LOSMap
*.radioMedium.pathLoss.blockageFile = "/home/bman/Documents/omnetpp-6.0.3/samples/PARRoT-PARRoT/PARRoT/Tools/BlockageFiles/seed${seed}_num120.csv"

[Config PARRoT_LOSMap_B0]
extends = PARRoT_LOSMap
*.radioMedium.pathLoss.blockageFile = "/home/bman/Documents/omnetpp-6.0.3/samples/PARRoT-PARRoT/PARRoT/Tools/BlockageFiles/seed${seed}_num120.csv"


[Config Batman]
**.app[0].typename = "Batman"
**.broadcastDelay=uniform(0s,0.005s)

[Config AodvUU]
**.app[0].typename = "AodvUU"
**.llfeedback = true
**.broadcastDelay=uniform(0s,0.005s)
