[General]
cmdenv-express-mode = true
description = "Manet routing Simple test"
result-dir = "results"
sim-time-limit = 60s
seed-0-mt = 0
#.seed = ${seed = 0..29 step 1}
.seed = ${seed = 0,1,2,3,4}
seed-set=${seed}
**.vector-recording = false

# BASIC SETUP
*.numServers = 1
*.numClients = 1
*.numRouters = ${numRouters=20}

###################### APP ######################
**.numApps = 1
# Client
**.client[*].app[0].typename = "UdpBasicBurstNotification"
**.client[*].app[0].startTime = 10s+uniform(-0.1s,0.1s)
**.client[*].app[0].localPort = 1234
**.client[*].app[0].destPort = 1234
**.client[*].app[0].messageLength = 1000B  #
**.client[*].app[0].sendInterval = 100ms
**.client[*].app[0].burstDuration = 0s
**.client[*].app[0].chooseDestAddrMode = "perBurst"
**.client[*].app[0].sleepDuration = 1s # useless
# Server
**.server[*].app[0].typename = "UdpSink"
**.server[*].app[0].localPort = 1234
# Router
**.router[*].app[0].typename = "UdpSink"
**.router[*].app[0].localPort = 0
# Data Stream
**.client[0].app[0].destAddresses = "server[0]"

###################### UDP ######################
*.**.udp.crcMode = "disabled"

###################### LLC ######################
*.*.llc.typename = ""

###################### MAC ######################
**.arp.typename = "GlobalArp"
**.wlan[*].mac.opMode = "g(mixed)"
**.wlan[*].mac.dcf.channelAccess.pendingQueue.frameCapacity = 10
**.wlan[*].mac.dcf.channelAccess.cwMin = 15
**.wlan[*].mac.dcf.channelAccess.cwMax = 1023
**.wlan[*].mac.dcf.recoveryProcedure.shortRetryLimit = 4
**.wlan[*].mac.dcf.recoveryProcedure.longRetryLimit = 4
**.wlan[*].mac.dcf.rtsPolicy.rtsThreshold = 5000 B
**.wlan*.bitrate = 54Mbps
**.wlan[*].mac.dcf.rateSelection.controlFrameBitrate = 54Mbps
**.wlan[*].mac.dcf.rateSelection.responseAckFrameBitrate = 54Mbps
**.wlan[*].mac.dcf.rateSelection.responseCtsFrameBitrate = 54Mbps
**.wlan[*].mac.dcf.rateSelection.dataFrameBitrate = 54Mbps
**.wlan[*].mac.dcf.rateSelection.mgmtFrameBitrate = 54Mbps
*.*.wlan[*].mac.dcf.originatorMacDataService.fragmentationPolicy.typename = ""

###################### PHY ######################
**.wlan[*].radio.bandName = "2.4 GHz"
**.wlan[*].radio.channelNumber = 0
**.wlan[*].radio.transmitter.power = 15 dBm
**.wlan*.radio.receiver.sensitivity = -90 dBm
**.wlan*.radio.receiver.energyDetection = -90 dBm
**.wlan[*].radio.receiver.snirThreshold = 20 dB
*.*.wlan[*].radio.receiver.errorModel.typename = ""
*.radioMedium.backgroundNoise.power = -110 dBm
*.physicalEnvironment.ground.typename = "FlatGround"
*.physicalEnvironment.ground.elevation = 0m
*.radioMedium.pathLoss.typename = "FactoryFading"
*.radioMedium.pathLoss.blockageFile = "/home/bman/Documents/omnetpp-6.0.3/samples/PARRoT-PARRoT/PARRoT/Tools/BlockageFiles/seed${seed}_num${blockNum=0,20,40,60,80,100}.csv"
*.physicalEnvironment.config = xmldoc("/home/bman/Documents/omnetpp-6.0.3/samples/PARRoT-PARRoT/PARRoT/Tools/BlockageFiles/seed${seed}_num${blockNum}.xml") # load physical objects
*.radioMedium.pathLoss.loadObstacle = true
*.radioMedium.pathLoss.loadShadowFading = true
*.radioMedium.pathLoss.shadowFadingFile = "/home/bman/Documents/omnetpp-6.0.3/samples/PARRoT-PARRoT/PARRoT/Tools/ShadowFading_Files/seed${seed}_sf.csv"
*.radioMedium.pathLoss.loadSmallScaleFading = true

###################### Mobility ######################
**.mobility.initFromDisplayString = false
**.updateFromDisplayString = false

*.router[*].mobility.typename = "ExtendedBonnMotionMobility"
*.router[*].mobility.is3D = true
*.router[*].mobility.nodeId = -1
*.router[*].mobility.applyDistortion = false
*.router[*].mobility.wpProvided = false
*.router[*].mobility.traceFile = "/home/bman/Documents/omnetpp-6.0.3/samples/PARRoT-PARRoT/PARRoT/Tools/TraceFiles/seed${seed}_router.csv"
*.router[*].mobility.distFile = ""
*.router[*].mobility.wpFile = ""

*.server[*].mobility.typename = "ExtendedBonnMotionMobility"
*.server[*].mobility.is3D = true
*.server[*].mobility.nodeId = -1
*.server[*].mobility.applyDistortion = false
*.server[*].mobility.wpProvided = false
*.server[*].mobility.traceFile = "/home/bman/Documents/omnetpp-6.0.3/samples/PARRoT-PARRoT/PARRoT/Tools/TraceFiles/seed${seed}_server.csv"
*.server[*].mobility.distFile = ""
*.server[*].mobility.wpFile = ""

*.client[*].mobility.typename = "ExtendedBonnMotionMobility"                                
*.client[*].mobility.is3D = true
*.client[*].mobility.nodeId = -1
*.client[*].mobility.applyDistortion = false
*.client[*].mobility.wpProvided = false
*.client[*].mobility.traceFile = "/home/bman/Documents/omnetpp-6.0.3/samples/PARRoT-PARRoT/PARRoT/Tools/TraceFiles/seed${seed}_client.csv"
*.client[*].mobility.distFile = ""
*.client[*].mobility.wpFile = ""

###################### LOS MAP ######################
**.LETRangeMode = -1
**.losRange = 525
**.nlosRange = 164

######################################################################
# LOS Map Train
######################################################################
[Config Collect_LOS_Map_Data]
extends = General
sim-time-limit = 600s
*.*.wlan[*].mac.dcf.promiscModeEnable = true
*.*.llc.typename = "Ieee8022Llc"
network = inet.examples.manetrouting.net80211_aodv.Net80211_aodv
result-dir = "results_train"

# SIM parameterpromiscModeEnable
**.numApps = 1

# Prels Parameter
**.hasIpv4 = false
**.hasIpv6 = false
**.hasGn = true
**.generic.typename = "SimpleNetworkLayer"
*.*.generic.arp.typename = "GlobalArp"
**.generic.np.typename = "Prels"


######################################################################
# manet routing
######################################################################
[Config Optimal]
extends = General
network = inet.examples.manetrouting.net80211_aodv.Net80211_aodv
result-dir = "results_optimal"

**.LETRangeMode = ${letmode=0,1,2}
#**.LETRangeMode = ${letmode=2}
**.hasIpv4 = false
**.hasIpv6 = false
**.hasGn = true
**.generic.typename = "SimpleNetworkLayer"
*.*.generic.arp.typename = "GlobalArp"
**.generic.np.typename = "LMPR"
*.*.wlan[*].mac.dcf.promiscModeEnable = true

[Config OLSR]
extends = General
network = inet.examples.manetrouting.net80211_aodv.Net80211_aodv
result-dir = "results_olsr"
**.numApps = 2

# OLSR_TVT parameter
**.app[1].typename = "Olsr"
**.app[1].Hello_ival = 1s
**.app[1].Tc_ival = 2s
**.app[1].OLSR_REFRESH_INTERVAL = 1s

###################### Compare ######################
[Config General_For_Compare]
extends = General
#**.LETRangeMode = 0 # LOS
#**.LETRangeMode = 1 # NLOS
#**.LETRangeMode = 2 # LOSMap
**.LETRangeMode = ${letmode=0,1,2}

[Config OLSR_TVT]
extends = General_For_Compare
network = inet.examples.manetrouting.net80211_aodv.Net80211_aodv
result-dir = "results_olsr_tvt"
# SIM parameter
**.numApps = 2

# OLSR_TVT parameter
**.app[1].typename = "Olsr_Etx_TVT"
**.app[1].Hello_ival = 1s
**.app[1].Tc_ival = 2s
**.app[1].OLSR_REFRESH_INTERVAL = 1s
**.app[1].Link_delay = false
**.app[1].ETX_loss_window_size = 1
**.app[1].routing_algorithm = 2
**.app[1].Mpr_algorithm = 6
**.app[1].Link_quality = 2

[Config Prels]
extends = General_For_Compare
network = inet.examples.manetrouting.net80211_aodv.Net80211_aodv
result-dir = "results_prels"

# SIM parameterpromiscModeEnable
**.numApps = 1

# Prels Parameter
**.hasIpv4 = false
**.hasIpv6 = false
**.hasGn = true
**.generic.typename = "SimpleNetworkLayer"
*.*.generic.arp.typename = "GlobalArp"
**.generic.np.typename = "Prels"

[Config PARRoT]
extends = General_For_Compare
network = inet.examples.manetrouting.net80211_aodv.Net80211_parrot
result-dir = "results_parrot"

# SIM Parameter
# 必须添加这3行，否则PARRoTRoute转换会失败 因为有低级别的route项存在无法被转换
*.*.ipv4.routingTable.netmaskRoutes = ""
*.configurator.addStaticRoutes = false
*.configurator.addDefaultRoutes = false
**.numApps = 1

# PARRoT parameter
**.mhChirpInterval = 1s
**.maxHops = 6
**.neighborReliabilityTimeout = 3s
**.rescheduleRoutesOnTimeout = false
**.useOHRepair = false
**.qFctAlpha = 0.5
**.qFctGamma = 0.8
**.combinationMethod = "M"
#**.predictionMethod = "waypoint"
**.predictionMethod = "optimal"
**.advancedMobility = false
**.maxJitter = 1

[Config PARRoT_Enhanced]
extends = General
network = inet.examples.manetrouting.net80211_aodv.Net80211_parrot
result-dir = "results_parrot_enhanced"

**.LETRangeMode = ${letmode=2}

# SIM Parameter
# 必须添加这3行，否则PARRoTRoute转换会失败 因为有低级别的route项存在无法被转换
*.*.ipv4.routingTable.netmaskRoutes = ""
*.configurator.addStaticRoutes = false
*.configurator.addDefaultRoutes = false
**.numApps = 1

# PARRoT parameter
**.mhChirpInterval = 1s
**.maxHops = 6
**.neighborReliabilityTimeout = 3s
**.rescheduleRoutesOnTimeout = false
**.useOHRepair = false
**.qFctAlpha = 1
**.qFctGamma = 0.8
**.combinationMethod = "M"
#**.predictionMethod = "waypoint"
**.predictionMethod = "optimal"
**.advancedMobility = false
**.maxJitter = 1



